2025-04-10 17:10:19,996 - ERROR - Failed to run experiment: Required file not found: C:\Users\mabel\PycharmProjects\COMP3071_Smart-Traffic-Light\SUMO_simulation\nets\road1.net.xml
2025-04-10 17:10:19,997 - ERROR - Traceback (most recent call last):
  File "C:\Users\mabel\PycharmProjects\COMP3071_Smart-Traffic-Light\SUMO_simulation\agents\experiment_agent.py", line 346, in <module>
    raise FileNotFoundError(f"Required file not found: {file_path}")
FileNotFoundError: Required file not found: C:\Users\mabel\PycharmProjects\COMP3071_Smart-Traffic-Light\SUMO_simulation\nets\road1.net.xml

2025-04-10 18:12:29,842 - INFO - Network file: C:\Users\mabel\PycharmProjects\COMP3071_Smart-Traffic-Light\SUMO_simulation\nets\road1.net.xml
2025-04-10 18:12:29,843 - INFO - Route file: C:\Users\mabel\PycharmProjects\COMP3071_Smart-Traffic-Light\SUMO_simulation\nets\road1.rou.xml
2025-04-10 18:12:29,843 - INFO - Model file: C:\Users\mabel\PycharmProjects\COMP3071_Smart-Traffic-Light\SUMO_simulation\trained_models\ql_model_final_road1.net_J1.pth
2025-04-10 18:12:29,843 - INFO - Output directory: C:\Users\mabel\PycharmProjects\COMP3071_Smart-Traffic-Light\SUMO_simulation\experiment_results\road1_J1_20250410-181229
2025-04-10 18:12:29,844 - INFO - Starting experiment with:
2025-04-10 18:12:29,844 - INFO - Network file: C:\Users\mabel\PycharmProjects\COMP3071_Smart-Traffic-Light\SUMO_simulation\nets\road1.net.xml
2025-04-10 18:12:29,844 - INFO - Route file: C:\Users\mabel\PycharmProjects\COMP3071_Smart-Traffic-Light\SUMO_simulation\nets\road1.rou.xml
2025-04-10 18:12:29,844 - INFO - Model path: C:\Users\mabel\PycharmProjects\COMP3071_Smart-Traffic-Light\SUMO_simulation\trained_models\ql_model_final_road1.net_J1.pth
2025-04-10 18:12:29,844 - INFO - Route file contents:
2025-04-10 18:12:29,844 - INFO - <?xml version="1.0" encoding="UTF-8"?>

<!-- generated on 2023-02-04 16:58:46 by Eclipse SUMO netedit Version 1.15.0
-->

<routes xmlns:xsi="http://www.w3.org/2001/XMLSchema-instance" xsi:noNamespaceSchemaLocation="http://sumo.dlr.de/xsd/routes_file.xsd">
    <!-- Vehicles, persons and containers (sorted by depart) -->
    <flow id="t_1" begin="0.00" from="E1" to="E7" via="-E2 E1 -E2 E1 -E2 E1 -E2 E1 -E2 E1" number="7" period="15.00"/>
    <flow id="t_2" begin="0.00" from="E0" to="E7" via="-E2 E1 E0 -E2 E1 E0 -E2 E1 E0 -E2 E1 E0 -E2 E1" number="5" period="100.00"/>
    <flow id="t_3" begin="0.00" from="-E0" to="E7" via="E2 -E1 -E0 E2 -E1 -E0 E2 -E1" number="7" period="100.00"/>
    <flow id="t_4" begin="0.00" from="E3" to="E7" via="E0 E3 E0 E3 E0 E3 E0 E3 E0" number="3" period="200.00"/>
    <flow id="t_6" begin="0.00" from="E2" to="E6" via="E3 E5 E1 -E1" number="3" period="170.00"/>
    <flow id="t_5" begin="5.00" from="-E4" to="E7" via="E0 -E1 -E5 -E1 -E0 E5 E3 -E3 E4 E1" number="5" period="100.00"/>
    <flow id="t_0" begin="100.00" from="E5" to="E6" via="-E4 E5 -E4 E5 -E4 E5 -E4 E5 -E4 E5" number="3" period="60.00"/>
</routes>

2025-04-10 18:12:29,845 - INFO - Creating SUMO environment...
2025-04-10 18:12:30,440 - INFO - SUMO environment created successfully
2025-04-10 18:12:32,462 - INFO - Model input shape: 11, Checkpoint input shape: 11
2025-04-10 18:12:32,463 - INFO - Successfully loaded model from C:\Users\mabel\PycharmProjects\COMP3071_Smart-Traffic-Light\SUMO_simulation\trained_models\ql_model_final_road1.net_J1.pth
2025-04-10 18:12:32,463 - INFO - Starting episode 1/5
2025-04-10 18:12:33,004 - INFO - Step 0: Action={'J1': 0}, Reward={'J1': 0.0}
2025-04-10 18:12:33,005 - INFO - Step 0 metrics:
2025-04-10 18:12:33,005 - INFO - Vehicles: 5
2025-04-10 18:12:33,005 - INFO - Waiting time: 0.00
2025-04-10 18:12:33,005 - INFO - Queue length: 0
2025-04-10 18:12:33,005 - INFO - Average speed: 6.74
2025-04-10 18:12:33,005 - INFO - Emergency vehicles: 0
2025-04-10 18:12:33,601 - INFO - Saved metrics to C:\Users\mabel\PycharmProjects\COMP3071_Smart-Traffic-Light\SUMO_simulation\experiment_results\road1_J1_20250410-181229\metrics_episode_1.csv
2025-04-10 18:12:33,601 - INFO - Starting episode 2/5
2025-04-10 18:12:34,222 - INFO - Step 0: Action={'J1': 0}, Reward={'J1': 0.0}
2025-04-10 18:12:35,265 - INFO - Saved metrics to C:\Users\mabel\PycharmProjects\COMP3071_Smart-Traffic-Light\SUMO_simulation\experiment_results\road1_J1_20250410-181229\metrics_episode_2.csv
2025-04-10 18:12:35,265 - INFO - Starting episode 3/5
2025-04-10 18:12:35,866 - INFO - Step 0: Action={'J1': 0}, Reward={'J1': 0.0}
2025-04-10 18:12:36,328 - INFO - Saved metrics to C:\Users\mabel\PycharmProjects\COMP3071_Smart-Traffic-Light\SUMO_simulation\experiment_results\road1_J1_20250410-181229\metrics_episode_3.csv
2025-04-10 18:12:36,328 - INFO - Starting episode 4/5
2025-04-10 18:12:36,939 - INFO - Step 0: Action={'J1': 0}, Reward={'J1': 0.0}
2025-04-10 18:12:37,418 - INFO - Saved metrics to C:\Users\mabel\PycharmProjects\COMP3071_Smart-Traffic-Light\SUMO_simulation\experiment_results\road1_J1_20250410-181229\metrics_episode_4.csv
2025-04-10 18:12:37,418 - INFO - Starting episode 5/5
2025-04-10 18:12:38,029 - INFO - Step 0: Action={'J1': 0}, Reward={'J1': 0.0}
2025-04-10 18:12:38,585 - INFO - Saved metrics to C:\Users\mabel\PycharmProjects\COMP3071_Smart-Traffic-Light\SUMO_simulation\experiment_results\road1_J1_20250410-181229\metrics_episode_5.csv
2025-04-10 18:12:38,660 - INFO - Experiment completed
2025-04-10 18:13:12,173 - INFO - Network file: C:\Users\mabel\PycharmProjects\COMP3071_Smart-Traffic-Light\SUMO_simulation\nets\road1.net.xml
2025-04-10 18:13:12,173 - INFO - Route file: C:\Users\mabel\PycharmProjects\COMP3071_Smart-Traffic-Light\SUMO_simulation\nets\road1.rou.xml
2025-04-10 18:13:12,173 - INFO - Model file: C:\Users\mabel\PycharmProjects\COMP3071_Smart-Traffic-Light\SUMO_simulation\trained_models\ql_model_final_road1.net_J1.pth
2025-04-10 18:13:12,173 - INFO - Output directory: C:\Users\mabel\PycharmProjects\COMP3071_Smart-Traffic-Light\SUMO_simulation\experiment_results\road1_J1_20250410-181312
2025-04-10 18:13:12,174 - INFO - Starting experiment with:
2025-04-10 18:13:12,174 - INFO - Network file: C:\Users\mabel\PycharmProjects\COMP3071_Smart-Traffic-Light\SUMO_simulation\nets\road1.net.xml
2025-04-10 18:13:12,174 - INFO - Route file: C:\Users\mabel\PycharmProjects\COMP3071_Smart-Traffic-Light\SUMO_simulation\nets\road1.rou.xml
2025-04-10 18:13:12,174 - INFO - Model path: C:\Users\mabel\PycharmProjects\COMP3071_Smart-Traffic-Light\SUMO_simulation\trained_models\ql_model_final_road1.net_J1.pth
2025-04-10 18:13:12,175 - INFO - Route file contents:
2025-04-10 18:13:12,175 - INFO - <?xml version="1.0" encoding="UTF-8"?>

<!-- generated on 2023-02-04 16:58:46 by Eclipse SUMO netedit Version 1.15.0
-->

<routes xmlns:xsi="http://www.w3.org/2001/XMLSchema-instance" xsi:noNamespaceSchemaLocation="http://sumo.dlr.de/xsd/routes_file.xsd">
    <!-- Vehicles, persons and containers (sorted by depart) -->
    <flow id="t_1" begin="0.00" from="E1" to="E7" via="-E2 E1 -E2 E1 -E2 E1 -E2 E1 -E2 E1" number="7" period="15.00"/>
    <flow id="t_2" begin="0.00" from="E0" to="E7" via="-E2 E1 E0 -E2 E1 E0 -E2 E1 E0 -E2 E1 E0 -E2 E1" number="5" period="100.00"/>
    <flow id="t_3" begin="0.00" from="-E0" to="E7" via="E2 -E1 -E0 E2 -E1 -E0 E2 -E1" number="7" period="100.00"/>
    <flow id="t_4" begin="0.00" from="E3" to="E7" via="E0 E3 E0 E3 E0 E3 E0 E3 E0" number="3" period="200.00"/>
    <flow id="t_6" begin="0.00" from="E2" to="E6" via="E3 E5 E1 -E1" number="3" period="170.00"/>
    <flow id="t_5" begin="5.00" from="-E4" to="E7" via="E0 -E1 -E5 -E1 -E0 E5 E3 -E3 E4 E1" number="5" period="100.00"/>
    <flow id="t_0" begin="100.00" from="E5" to="E6" via="-E4 E5 -E4 E5 -E4 E5 -E4 E5 -E4 E5" number="3" period="60.00"/>
</routes>

2025-04-10 18:13:12,175 - INFO - Creating SUMO environment...
2025-04-10 18:13:12,767 - INFO - SUMO environment created successfully
2025-04-10 18:13:14,204 - INFO - Model input shape: 11, Checkpoint input shape: 11
2025-04-10 18:13:14,204 - INFO - Successfully loaded model from C:\Users\mabel\PycharmProjects\COMP3071_Smart-Traffic-Light\SUMO_simulation\trained_models\ql_model_final_road1.net_J1.pth
2025-04-10 18:13:14,204 - INFO - Starting episode 1/5
2025-04-10 18:13:14,742 - INFO - Step 0: Action={'J1': 0}, Reward={'J1': 0.0}
2025-04-10 18:13:14,744 - INFO - Step 0 metrics:
2025-04-10 18:13:14,744 - INFO - Vehicles: 5
2025-04-10 18:13:14,744 - INFO - Waiting time: 0.00
2025-04-10 18:13:14,744 - INFO - Queue length: 0
2025-04-10 18:13:14,744 - INFO - Average speed: 5.72
2025-04-10 18:13:14,744 - INFO - Emergency vehicles: 0
2025-04-10 18:13:15,300 - INFO - Saved metrics to C:\Users\mabel\PycharmProjects\COMP3071_Smart-Traffic-Light\SUMO_simulation\experiment_results\road1_J1_20250410-181312\metrics_episode_1.csv
2025-04-10 18:13:15,300 - INFO - Starting episode 2/5
2025-04-10 18:13:15,915 - INFO - Step 0: Action={'J1': 0}, Reward={'J1': 0.0}
2025-04-10 18:13:17,045 - INFO - Saved metrics to C:\Users\mabel\PycharmProjects\COMP3071_Smart-Traffic-Light\SUMO_simulation\experiment_results\road1_J1_20250410-181312\metrics_episode_2.csv
2025-04-10 18:13:17,045 - INFO - Starting episode 3/5
2025-04-10 18:13:17,659 - INFO - Step 0: Action={'J1': 0}, Reward={'J1': 0.0}
2025-04-10 18:13:18,179 - INFO - Saved metrics to C:\Users\mabel\PycharmProjects\COMP3071_Smart-Traffic-Light\SUMO_simulation\experiment_results\road1_J1_20250410-181312\metrics_episode_3.csv
2025-04-10 18:13:18,179 - INFO - Starting episode 4/5
2025-04-10 18:13:18,788 - INFO - Step 0: Action={'J1': 0}, Reward={'J1': 0.0}
2025-04-10 18:13:19,225 - INFO - Saved metrics to C:\Users\mabel\PycharmProjects\COMP3071_Smart-Traffic-Light\SUMO_simulation\experiment_results\road1_J1_20250410-181312\metrics_episode_4.csv
2025-04-10 18:13:19,225 - INFO - Starting episode 5/5
2025-04-10 18:13:19,829 - INFO - Step 0: Action={'J1': 0}, Reward={'J1': 0.0}
2025-04-10 18:13:20,282 - INFO - Saved metrics to C:\Users\mabel\PycharmProjects\COMP3071_Smart-Traffic-Light\SUMO_simulation\experiment_results\road1_J1_20250410-181312\metrics_episode_5.csv
2025-04-10 18:13:20,349 - INFO - Experiment completed
